* File: Lab3_CAS.pex.netlist.pex
* Created: Tue Nov 11 14:18:52 2025
* Program "Calibre xRC"
* Version "v2022.4_37.20"
* Nominal Temperature: 25C
* Circuit Temperature: 25C
* 
.subckt PM_Lab3_CAS_Gnd 1 5 8 17 21 39 43 44 48 55 59 60 64 71 75 82 86 87 91
+ 103 107 118 125 129 136 140 141 145 152 156 157 161 172 173 177 184 188 189
+ 193 200 204 211 215 222 226 233 237 238 242 254 258 269 270 274 285 404 406
+ 409 416 419 428 433 434 438 440 445 447 455 458 461 468 471 473 480 485 488
+ 491 493 498 501 503 508 511 513 518 521 523 530 535 540 547 551 554 556 561
+ 564 576 578
c524 576 0 1.50076e-19
c525 564 0 0.00397292f
c526 561 0 0.00282737f
c527 556 0 0.00198646f
c528 551 0 0.00198646f
c529 547 0 0.0636666f
c530 544 0 0.00375948f
c531 523 0 0.00198646f
c532 518 0 0.00198646f
c533 513 0 0.00198646f
c534 508 0 0.00198646f
c535 503 0 0.00198646f
c536 498 0 0.00198646f
c537 493 0 0.00198646f
c538 488 0 0.00198646f
c539 473 0 0.00198646f
c540 468 0 0.00198646f
c541 463 0 0.00198646f
c542 458 0 0.00198646f
c543 455 0 3.84275e-20
c544 447 0 1.22757e-19
c545 445 0 1.94509e-20
c546 440 0 4.95665e-20
c547 434 0 1.22757e-19
c548 428 0 1.74489e-20
c549 421 0 0.00198646f
c550 419 0 8.74927e-20
c551 416 0 0.0016216f
c552 411 0 0.00198646f
c553 409 0 1.99371e-20
c554 406 0 0.00198646f
c555 285 0 0.0427573f
c556 274 0 0.0154723f
c557 270 0 1.43203e-19
c558 269 0 0.060276f
c559 258 0 0.015698f
c560 254 0 1.43203e-19
c561 242 0 0.0187747f
c562 238 0 1.43203e-19
c563 237 0 0.043276f
c564 226 0 0.043276f
c565 215 0 0.043276f
c566 204 0 0.0427573f
c567 193 0 2.43649e-19
c568 189 0 1.43203e-19
c569 188 0 0.0427573f
c570 177 0 2.43649e-19
c571 173 0 1.43203e-19
c572 172 0 0.060276f
c573 161 0 0.015698f
c574 157 0 1.43203e-19
c575 156 0 0.0427573f
c576 145 0 2.43649e-19
c577 141 0 1.43203e-19
c578 140 0 0.043276f
c579 129 0 0.043276f
c580 125 0 2.58238e-20
c581 118 0 0.0427573f
c582 114 0 2.58238e-20
c583 107 0 2.43649e-19
c584 103 0 1.69027e-19
c585 102 0 0.060276f
c586 91 0 0.015698f
c587 87 0 1.43203e-19
c588 86 0 0.00274081f
c589 82 0 2.92362e-20
c590 75 0 0.00144253f
c591 64 0 0.00355475f
c592 60 0 1.43203e-19
c593 59 0 0.00144253f
c594 48 0 0.00355475f
c595 44 0 2.45002e-19
c596 43 0 0.00144253f
c597 39 0 9.9595e-20
c598 32 0 0.0171513f
c599 21 0 0.015698f
c600 17 0 1.43203e-19
c601 16 0 0.0598961f
c602 5 0 0.015698f
c603 1 0 1.43203e-19
r604 564 565 0.506667
r605 560 561 1.38489
r606 556 557 0.506667
r607 555 606 0.197273
r608 554 560 0.21666
r609 554 555 7.87143
r610 550 606 0.0141807
r611 550 551 1.38489
r612 549 604 0.197273
r613 548 606 0.197273
r614 548 549 4.72286
r615 546 604 0.0141807
r616 546 547 2.18711
r617 544 545 0.506667
r618 541 602 0.197273
r619 540 604 0.197273
r620 540 541 6.67714
r621 537 602 0.0141807
r622 536 601 0.197273
r623 535 602 0.197273
r624 535 536 6.67714
r625 532 601 0.0141807
r626 531 600 0.197273
r627 530 601 0.197273
r628 530 531 8.90286
r629 527 600 0.0141807
r630 523 524 0.506667
r631 522 597 0.197273
r632 521 600 0.197273
r633 521 522 6.67714
r634 517 597 0.0141807
r635 517 518 1.38489
r636 513 514 0.506667
r637 512 594 0.197273
r638 511 597 0.197273
r639 511 512 6.67714
r640 507 594 0.0141807
r641 507 508 1.38489
r642 503 504 0.506667
r643 502 591 0.197273
r644 501 594 0.197273
r645 501 502 6.67714
r646 497 591 0.0141807
r647 497 498 1.38489
r648 493 494 0.506667
r649 492 588 0.197273
r650 491 591 0.197273
r651 491 492 6.67714
r652 487 588 0.0141807
r653 487 488 1.38489
r654 486 587 0.197273
r655 485 588 0.197273
r656 485 486 4.45143
r657 482 587 0.0141807
r658 481 586 0.197273
r659 480 587 0.197273
r660 480 481 8.90286
r661 477 586 0.0141807
r662 473 474 0.506667
r663 472 583 0.197273
r664 471 586 0.197273
r665 471 472 6.67714
r666 467 583 0.0141807
r667 467 468 1.38489
r668 463 464 0.506667
r669 462 580 0.185759
r670 461 583 0.197273
r671 461 462 6.67714
r672 457 580 0.0223725
r673 457 458 1.33844
r674 456 579 0.175495
r675 455 580 0.185759
r676 455 456 16.5511
r677 452 579 0.03009
r678 448 578 0.158707
r679 447 449 0.212317
r680 447 448 0.506667
r681 446 577 0.175495
r682 445 579 0.175495
r683 445 446 4.84148
r684 443 578 0.0436736
r685 442 577 0.03009
r686 441 576 0.158707
r687 440 578 0.158707
r688 440 441 2.3372
r689 439 575 0.175495
r690 438 577 0.175495
r691 438 439 2.68346
r692 436 576 0.0436736
r693 435 575 0.03009
r694 433 576 0.158707
r695 433 434 0.506667
r696 430 434 0.212317
r697 429 574 0.175495
r698 428 575 0.175495
r699 428 429 5.09012
r700 425 574 0.03009
r701 421 422 0.506667
r702 420 571 0.175495
r703 419 574 0.175495
r704 419 420 6.54444
r705 415 571 0.03009
r706 415 416 0.933111
r707 411 412 0.506667
r708 409 571 0.175495
r709 409 410 4.84617
r710 405 406 0.924667
r711 404 405 0.103983
r712 404 410 0.1091
r713 285 565 0.0418175
r714 285 561 0.160909
r715 281 285 0.5
r716 274 564 0.106158
r717 272 274 0.5
r718 270 272 0.0623333
r719 269 557 0.0418175
r720 269 551 0.160909
r721 265 269 0.5
r722 258 556 0.106158
r723 256 258 0.5
r724 254 256 0.0623333
r725 253 547 0.106158
r726 253 544 0.106158
r727 249 253 0.5
r728 242 545 0.106158
r729 240 242 0.5
r730 238 240 0.0623333
r731 237 537 2.37711
r732 233 237 0.5
r733 226 532 2.37711
r734 222 226 0.5
r735 215 527 1.57489
r736 211 215 0.5
r737 204 524 0.0418175
r738 204 518 0.160909
r739 200 204 0.5
r740 193 523 0.106158
r741 191 193 0.5
r742 189 191 0.0623333
r743 188 514 0.0418175
r744 188 508 0.160909
r745 184 188 0.5
r746 177 513 0.106158
r747 175 177 0.5
r748 173 175 0.0623333
r749 172 504 0.0418175
r750 172 498 0.160909
r751 168 172 0.5
r752 161 503 0.106158
r753 159 161 0.5
r754 157 159 0.0623333
r755 156 494 0.0418175
r756 156 488 0.160909
r757 152 156 0.5
r758 145 493 0.106158
r759 143 145 0.5
r760 141 143 0.0623333
r761 140 482 2.37711
r762 136 140 0.5
r763 129 477 1.57489
r764 125 129 0.5
r765 118 474 0.0418175
r766 118 468 0.160909
r767 114 118 0.5
r768 107 473 0.106158
r769 105 107 0.5
r770 103 105 0.0623333
r771 102 464 0.0418175
r772 102 458 0.160909
r773 98 102 0.5
r774 91 463 0.106158
r775 89 91 0.5
r776 87 89 0.0623333
r777 86 452 1.92956
r778 82 86 0.5
r779 75 443 0.612222
r780 75 442 1.12311
r781 71 75 0.5
r782 64 449 0.612222
r783 62 64 0.5
r784 60 62 0.0623333
r785 59 436 0.608
r786 59 435 1.16111
r787 55 59 0.5
r788 48 430 0.612222
r789 46 48 0.5
r790 44 46 0.0623333
r791 43 425 2.01822
r792 39 43 0.5
r793 32 422 0.0418175
r794 32 416 0.160909
r795 28 32 0.5
r796 21 421 0.106158
r797 19 21 0.5
r798 17 19 0.0623333
r799 16 412 0.0418175
r800 16 406 0.160909
r801 12 16 0.5
r802 8 281 0.215909
r803 8 265 0.215909
r804 8 249 0.215909
r805 8 233 0.215909
r806 8 222 0.215909
r807 8 211 0.215909
r808 8 200 0.215909
r809 8 184 0.215909
r810 8 168 0.215909
r811 8 152 0.215909
r812 8 136 0.215909
r813 8 125 0.215909
r814 8 114 0.215909
r815 8 98 0.215909
r816 8 82 0.215909
r817 8 71 0.215909
r818 8 55 0.215909
r819 8 39 0.215909
r820 8 28 0.215909
r821 8 12 0.215909
r822 5 411 0.106158
r823 3 5 0.5
r824 1 3 0.0623333
.ends

.subckt PM_Lab3_CAS_Vdd 4 17 21 25 36 38 42 46 57 59 63 67 78 80 84 88 95 99 103
+ 110 114 118 131 135 139 146 150 152 156 160 167 171 175 182 186 190 197 201
+ 203 207 211 222 224 228 232 239 243 245 249 253 260 264 266 270 274 281 285
+ 289 296 300 304 311 315 319 330 332 336 340 351 353 357 361 372 374 378 412
+ 417 419 431 438 445 449 455 459 463 465 470 472 477 485 486 488 497 498 500
+ 508 513 519 520 522 531 532 534 543 544 546 555 556 558 566 571 576 582 586
+ 592 593 595 604 619 628 630 631 632 634 636 638 640 641 642 643 644 646 652
+ 655 661 667 674 678 682 684
c541 674 0 0.00181633f
c542 667 0 0.00216432f
c543 661 0 0.00220019f
c544 655 0 0.00215038f
c545 647 0 0.0153781f
c546 645 0 0.0153781f
c547 639 0 0.0153781f
c548 637 0 0.0153781f
c549 635 0 0.0153781f
c550 633 0 0.0153781f
c551 629 0 0.0153781f
c552 627 0 0.0153781f
c553 619 0 0.0288874f
c554 613 0 0.0477968f
c555 605 0 0.0193237f
c556 604 0 0.00282737f
c557 593 0 1.22132e-19
c558 592 0 0.00198646f
c559 582 0 0.0154636f
c560 581 0 0.0369536f
c561 576 0 1.29909e-19
c562 556 0 1.22132e-19
c563 555 0 0.00198646f
c564 544 0 2.97938e-19
c565 543 0 0.00198646f
c566 534 0 1.29909e-19
c567 532 0 1.76944e-19
c568 531 0 0.00198646f
c569 520 0 1.22132e-19
c570 519 0 0.00198646f
c571 498 0 1.22132e-19
c572 497 0 0.00198646f
c573 488 0 6.49546e-20
c574 486 0 1.49538e-19
c575 485 0 0.00198646f
c576 477 0 5.13953e-20
c577 472 0 1.86755e-19
c578 470 0 0.00139435f
c579 465 0 4.45116e-20
c580 463 0 1.54932e-19
c581 419 0 0.00120433f
c582 378 0 1.21516e-19
c583 374 0 1.43203e-19
c584 372 0 0.0273793f
c585 357 0 1.21516e-19
c586 353 0 1.43203e-19
c587 351 0 0.0273793f
c588 336 0 0.00360956f
c589 332 0 1.43203e-19
c590 330 0 0.0308978f
c591 315 0 0.043276f
c592 300 0 0.043276f
c593 285 0 0.043276f
c594 270 0 1.21516e-19
c595 266 0 1.43203e-19
c596 264 0 0.0273793f
c597 249 0 1.21516e-19
c598 245 0 1.43203e-19
c599 243 0 0.0273793f
c600 228 0 0.0155758f
c601 224 0 1.43203e-19
c602 222 0 0.0452502f
c603 207 0 1.21516e-19
c604 203 0 1.43203e-19
c605 201 0 0.0273793f
c606 186 0 0.043276f
c607 171 0 0.043276f
c608 156 0 1.21516e-19
c609 152 0 1.43203e-19
c610 150 0 0.0273793f
c611 135 0 0.0155758f
c612 131 0 1.43203e-19
c613 129 0 0.0452502f
c614 114 0 0.0168011f
c615 95 0 8.38966e-20
c616 88 0 1.44253e-19
c617 80 0 1.43203e-19
c618 78 0 0.00187529f
c619 63 0 1.82461e-19
c620 59 0 1.43203e-19
c621 42 0 0.0157792f
c622 38 0 1.43203e-19
c623 36 0 0.0154769f
c624 32 0 2.44757e-20
c625 21 0 0.0159331f
c626 17 0 1.43203e-19
c627 15 0 0.0400447f
r628 680 684 0.0275115
r629 680 682 2.71192
r630 676 684 0.105861
r631 676 678 0.969231
r632 672 684 0.105861
r633 672 674 1.16346
r634 667 670 2.43269
r635 661 664 2.41538
r636 655 658 2.38654
r637 649 652 2.14122
r638 606 647 0.0418175
r639 605 607 0.212317
r640 605 606 0.506667
r641 603 647 0.160909
r642 603 604 1.81556
r643 600 647 0.160909
r644 596 646 0.197273
r645 595 604 0.21666
r646 595 596 7.87143
r647 594 645 0.0418175
r648 593 597 0.212317
r649 593 594 0.506667
r650 592 646 0.0141807
r651 591 645 0.160909
r652 591 592 1.81556
r653 588 645 0.160909
r654 587 644 0.197273
r655 586 646 0.197273
r656 586 587 4.72286
r657 584 644 0.0141807
r658 581 583 0.212317
r659 581 582 0.506667
r660 578 582 0.212317
r661 577 643 0.197273
r662 576 644 0.197273
r663 576 577 6.67714
r664 573 643 0.0141807
r665 572 642 0.197273
r666 571 643 0.197273
r667 571 572 6.67714
r668 568 642 0.0141807
r669 567 641 0.197273
r670 566 642 0.197273
r671 566 567 8.90286
r672 563 641 0.0141807
r673 559 640 0.197273
r674 558 641 0.197273
r675 558 559 6.67714
r676 557 639 0.0418175
r677 556 560 0.212317
r678 556 557 0.506667
r679 555 640 0.0141807
r680 554 639 0.160909
r681 554 555 1.81556
r682 551 639 0.160909
r683 547 638 0.197273
r684 546 640 0.197273
r685 546 547 6.67714
r686 545 637 0.0418175
r687 544 548 0.212317
r688 544 545 0.506667
r689 543 638 0.0141807
r690 542 637 0.160909
r691 542 543 1.81556
r692 539 637 0.160909
r693 535 636 0.197273
r694 534 638 0.197273
r695 534 535 6.67714
r696 533 635 0.0418175
r697 532 536 0.212317
r698 532 533 0.506667
r699 531 636 0.0141807
r700 530 635 0.160909
r701 530 531 1.81556
r702 527 635 0.160909
r703 523 634 0.197273
r704 522 636 0.197273
r705 522 523 6.67714
r706 521 633 0.0418175
r707 520 524 0.212317
r708 520 521 0.506667
r709 519 634 0.0141807
r710 518 633 0.160909
r711 518 519 1.81556
r712 515 633 0.160909
r713 514 632 0.197273
r714 513 634 0.197273
r715 513 514 4.45143
r716 510 632 0.0141807
r717 509 631 0.197273
r718 508 632 0.197273
r719 508 509 8.90286
r720 505 631 0.0141807
r721 501 630 0.197273
r722 500 631 0.197273
r723 500 501 6.67714
r724 499 629 0.0418175
r725 498 502 0.212317
r726 498 499 0.506667
r727 497 630 0.0141807
r728 496 629 0.160909
r729 496 497 1.81556
r730 493 629 0.160909
r731 489 628 0.147272
r732 488 630 0.197273
r733 488 489 6.67714
r734 487 627 0.0418175
r735 486 490 0.212317
r736 486 487 0.506667
r737 485 628 0.0537161
r738 484 627 0.160909
r739 484 485 1.56222
r740 481 627 0.160909
r741 479 682 2
r742 477 628 0.147272
r743 477 479 4.9248
r744 472 674 2
r745 470 626 0.209638
r746 470 472 0.575846
r747 465 667 2
r748 463 625 0.209122
r749 463 465 0.488154
r750 459 460 0.404516
r751 455 661 2
r752 453 455 0.394615
r753 449 655 2
r754 447 449 0.400462
r755 445 446 0.395833
r756 440 619 0.0305326
r757 438 652 2
r758 436 619 0.408298
r759 436 616 0.440638
r760 436 438 0.862308
r761 433 616 0.0305326
r762 431 678 2
r763 429 670 2
r764 429 431 4.49277
r765 427 664 2
r766 427 429 3.12477
r767 425 658 2
r768 425 427 2.23908
r769 423 425 7.11243
r770 420 613 0.0596357
r771 419 649 2
r772 417 419 3.07508
r773 416 613 0.345455
r774 416 610 0.38
r775 416 419 0.850615
r776 413 610 0.0596357
r777 412 417 0.106158
r778 412 423 0.106158
r779 378 607 0.612222
r780 376 378 0.5
r781 374 376 0.0623333
r782 372 600 0.612222
r783 368 372 0.5
r784 361 368 0.215909
r785 357 597 0.612222
r786 355 357 0.5
r787 353 355 0.0623333
r788 351 588 0.612222
r789 347 351 0.5
r790 340 347 0.215909
r791 336 578 0.612222
r792 334 336 0.5
r793 332 334 0.0623333
r794 330 584 2.00556
r795 330 583 0.612222
r796 326 330 0.5
r797 319 326 0.215909
r798 315 573 2.00556
r799 311 315 0.5
r800 304 311 0.215909
r801 300 568 2.00556
r802 296 300 0.5
r803 289 296 0.215909
r804 285 563 2.80778
r805 281 285 0.5
r806 274 281 0.215909
r807 270 560 0.612222
r808 268 270 0.5
r809 266 268 0.0623333
r810 264 551 0.612222
r811 260 264 0.5
r812 253 260 0.215909
r813 249 548 0.612222
r814 247 249 0.5
r815 245 247 0.0623333
r816 243 539 0.612222
r817 239 243 0.5
r818 232 239 0.215909
r819 228 536 0.612222
r820 226 228 0.5
r821 224 226 0.0623333
r822 222 527 0.612222
r823 218 222 0.5
r824 211 218 0.215909
r825 207 524 0.612222
r826 205 207 0.5
r827 203 205 0.0623333
r828 201 515 0.612222
r829 197 201 0.5
r830 190 197 0.215909
r831 186 510 2.00556
r832 182 186 0.5
r833 175 182 0.215909
r834 171 505 2.80778
r835 167 171 0.5
r836 160 167 0.215909
r837 156 502 0.612222
r838 154 156 0.5
r839 152 154 0.0623333
r840 150 493 0.612222
r841 146 150 0.5
r842 139 146 0.215909
r843 135 490 0.612222
r844 133 135 0.5
r845 131 133 0.0623333
r846 129 481 0.612222
r847 125 129 0.5
r848 118 125 0.215909
r849 114 626 0.561556
r850 110 114 0.5
r851 103 110 0.215909
r852 99 625 0.582667
r853 95 99 0.5
r854 88 95 0.215909
r855 84 459 0.104569
r856 82 84 0.5
r857 80 82 0.0623333
r858 78 460 0.060847
r859 78 453 0.139623
r860 74 78 0.5
r861 67 74 0.215909
r862 63 446 0.102873
r863 61 63 0.5
r864 59 61 0.0623333
r865 57 445 0.0572198
r866 57 447 0.143467
r867 53 57 0.5
r868 46 53 0.215909
r869 42 440 0.595333
r870 40 42 0.5
r871 38 40 0.0623333
r872 36 433 0.595333
r873 32 36 0.5
r874 25 32 0.215909
r875 21 420 0.527778
r876 19 21 0.5
r877 17 19 0.0623333
r878 15 413 0.527778
r879 11 15 0.5
r880 4 11 0.215909
.ends

.subckt PM_Lab3_CAS_N_12 1 3 5 6 8 10 12 13 21 22 27 36 40 42 48 50 55
c92 40 0 2.44757e-20
c93 10 0 3.86852e-19
c94 6 0 7.49719e-20
c95 3 0 4.06789e-19
r96 52 55 1.81154
r97 46 48 1.47356
r98 44 55 2
r99 42 46 0.221575
r100 42 44 5.69065
r101 40 52 2
r102 38 40 3.16277
r103 37 50 0.0671887
r104 36 38 0.235915
r105 36 37 1.21917
r106 33 50 0.133132
r107 30 50 0.133132
r108 27 48 1.1
r109 27 28 0.200208
r110 21 23 0.141474
r111 21 22 0.655738
r112 18 22 0.141474
r113 13 28 1.005
r114 13 23 4.82
r115 12 33 1.26667
r116 10 12 0.5
r117 8 10 0.0625
r118 6 18 1.125
r119 5 30 3.68178
r120 3 5 0.5
r121 1 3 0.0625
.ends

.subckt PM_Lab3_CAS_N_8 1 3 5 6 8 10 11 12 13 14 16 18 20 22 24 26 27 28 29 30
+ 60 64 68 72 75 85 86 93 97 99 102 103 107 109 111 114 120 126 132 140 141 143
+ 146 148 149 152 156 159 165 171 177 182
c250 177 0 1.94971e-19
c251 165 0 1.82486e-19
c252 152 0 1.96835e-19
c253 141 0 7.92367e-20
c254 111 0 3.89964e-19
c255 109 0 1.30146e-19
c256 107 0 6.49546e-20
c257 86 0 1.22642e-19
c258 85 0 2.95272e-19
c259 72 0 5.48113e-20
c260 68 0 5.48113e-20
c261 64 0 8.2217e-20
c262 60 0 2.74057e-20
c263 26 0 1.21516e-19
c264 24 0 1.43203e-19
c265 20 0 2.6577e-19
c266 18 0 1.43203e-19
c267 8 0 1.62417e-19
c268 3 0 5.22779e-19
r269 177 180 0.653846
r270 171 174 0.653846
r271 165 168 0.653846
r272 159 162 0.653846
r273 154 182 0.105861
r274 154 156 1.87154
r275 150 182 0.0275115
r276 150 152 1.42885
r277 148 182 0.105861
r278 148 149 6.01346
r279 144 149 0.139682
r280 144 146 0.688462
r281 139 152 2
r282 139 141 0.189415
r283 139 140 0.190585
r284 135 177 2
r285 132 135 0.526154
r286 129 171 2
r287 126 129 0.526154
r288 123 165 2
r289 120 123 0.526154
r290 117 159 2
r291 114 117 0.526154
r292 111 180 2
r293 109 174 2
r294 109 111 22.5486
r295 107 168 2
r296 107 109 8.31615
r297 105 162 2
r298 105 107 10.9732
r299 103 105 8.33077
r300 102 103 0.238167
r301 101 102 12.0243
r302 100 143 0.215936
r303 99 101 0.21666
r304 99 100 1.12311
r305 97 156 2
r306 95 143 0.00182248
r307 95 97 1.10785
r308 93 143 0.215936
r309 93 94 0.662889
r310 86 88 0.220817
r311 86 141 0.745156
r312 85 140 0.715469
r313 81 85 0.220817
r314 77 146 2
r315 75 77 0.595723
r316 72 132 1.1
r317 72 73 0.200208
r318 68 126 1.1
r319 68 69 0.200208
r320 64 120 1.1
r321 64 65 0.200208
r322 60 114 1.1
r323 60 61 0.200208
r324 30 73 1
r325 29 69 1
r326 28 65 1
r327 27 61 1
r328 26 88 0.451778
r329 24 26 0.5
r330 22 24 0.0625
r331 20 81 0.456
r332 18 20 0.5
r333 16 18 0.0625
r334 14 30 7.75
r335 13 29 7.75
r336 12 28 7.75
r337 11 27 7.75
r338 10 94 0.106158
r339 8 10 0.5
r340 6 8 0.0625
r341 5 75 0.0906444
r342 3 5 0.5
r343 1 3 0.0625
.ends

.subckt PM_Lab3_CAS_N_11 1 3 5 6 8 10 12 13 24 25 26 27 29 31 40 43 44 45 48 50
c79 44 0 9.14505e-21
c80 43 0 2.16486e-20
c81 31 0 1.82461e-19
c82 10 0 3.86852e-19
c83 3 0 4.06303e-19
r84 46 48 0.743111
r85 44 46 0.212317
r86 44 45 1.58333
r87 43 45 0.21666
r88 42 43 4.70114
r89 41 50 0.0671887
r90 40 42 0.212372
r91 40 41 1.21917
r92 37 50 0.133132
r93 34 50 0.133132
r94 31 48 1.1
r95 31 32 0.200208
r96 28 29 1.505
r97 26 29 0.139682
r98 26 27 0.8
r99 24 28 0.139682
r100 24 25 0.8
r101 21 27 0.139682
r102 18 25 0.139682
r103 13 32 1
r104 13 21 2.28
r105 12 37 1.292
r106 10 12 0.5
r107 8 10 0.0625
r108 6 18 1.965
r109 5 34 3.63111
r110 3 5 0.5
r111 1 3 0.0625
.ends

.subckt PM_Lab3_CAS_M 1 2 3 4 18 22 25 31 32 35
c73 22 0 1.7263e-19
c74 2 0 2.99629e-20
r75 33 35 2.36444
r76 31 33 0.216186
r77 31 32 17.3248
r78 26 32 0.216186
r79 26 30 2.41511
r80 25 30 0.00422222
r81 22 35 1.1
r82 22 23 0.200208
r83 18 30 1.1
r84 18 19 0.200208
r85 4 23 1
r86 3 19 1
r87 2 4 6.25
r88 1 3 6.19
.ends

.subckt PM_Lab3_CAS_Qin 1 2 3 4 16 17 22 26 29 35 36 39
c74 26 0 1.60179e-19
c75 4 0 1.6281e-20
r76 37 39 2.95556
r77 35 37 0.212325
r78 35 36 21.9815
r79 30 36 0.212325
r80 30 34 2.98933
r81 29 34 0.0126667
r82 26 39 1.1
r83 26 27 0.200208
r84 22 34 1.1
r85 22 23 0.200208
r86 16 18 0.139682
r87 16 17 0.8
r88 13 17 0.139682
r89 4 27 1
r90 4 13 1.975
r91 3 23 1.005
r92 2 18 4.025
r93 1 3 6.22
.ends

.subckt PM_Lab3_CAS_N_17 2 4 6 8 10 12 14 20 24 32 33 36 39 41 42 44 46 52 53
c104 44 0 3.43114e-20
c105 41 0 1.64448e-20
c106 36 0 3.31404e-20
c107 24 0 1.60179e-19
c108 20 0 5.30841e-19
c109 14 0 3.87362e-19
c110 10 0 1.43203e-19
c111 4 0 1.73996e-19
r112 45 53 0.0256233
r113 44 46 0.213083
r114 44 45 2.08765
r115 43 52 0.148532
r116 42 48 0.213995
r117 42 43 7.6839
r118 40 53 0.181369
r119 40 41 2.052
r120 39 53 0.181369
r121 38 52 0.0525745
r122 38 39 0.738286
r123 36 41 0.21666
r124 36 37 1.12733
r125 32 52 0.148532
r126 32 33 9.13974
r127 29 33 0.213995
r128 24 48 1.86622
r129 22 24 0.5
r130 20 22 0.0623333
r131 18 46 0.945778
r132 16 18 0.5
r133 14 16 0.0623333
r134 12 37 0.106158
r135 10 12 0.5
r136 8 10 0.0625
r137 6 29 2.75711
r138 4 6 0.5
r139 2 4 0.0625
.ends

.subckt PM_Lab3_CAS_N_16 1 5 6 8 10 11 13 15 16 20 30 31 35 40 46 47
c81 40 0 2.92362e-20
c82 35 0 1.01799e-19
c83 16 0 1.62417e-19
c84 15 0 3.66754e-20
c85 13 0 4.06927e-19
c86 10 0 7.51041e-20
c87 8 0 4.04925e-19
c88 5 0 5.02165e-19
c89 1 0 1.58219e-19
r90 41 47 0.167086
r91 40 42 0.216186
r92 40 41 4.45296
r93 37 47 0.0367346
r94 36 46 0.146033
r95 35 47 0.167086
r96 35 36 5.23723
r97 32 46 0.0548478
r98 30 46 0.146033
r99 30 31 3.32594
r100 28 31 0.213067
r101 20 42 0.992222
r102 18 20 0.5
r103 16 18 0.0623333
r104 15 37 1.52844
r105 13 15 0.5
r106 11 13 0.0625
r107 10 32 1.49044
r108 8 10 0.5
r109 6 8 0.0625
r110 5 28 0.626374
r111 3 5 0.5
r112 1 3 0.0623333
.ends

.subckt PM_Lab3_CAS_B 1 2 3 4 5 6 7 8 34 38 42 46 49 59 62 68 74 80 86 92 98 104
c166 98 0 1.75805e-19
c167 59 0 5.13953e-20
c168 46 0 2.74057e-20
c169 42 0 8.2217e-20
c170 38 0 5.48113e-20
c171 34 0 2.74057e-20
r172 104 107 1.42308
r173 98 101 1.42308
r174 92 95 1.42308
r175 86 89 1.42308
r176 83 104 2
r177 80 83 0.526154
r178 77 98 2
r179 74 77 0.526154
r180 71 92 2
r181 68 71 0.526154
r182 65 86 2
r183 62 65 0.526154
r184 59 107 2
r185 57 101 2
r186 57 59 14.8142
r187 55 95 2
r188 55 57 7.71985
r189 53 89 2
r190 53 55 11.5783
r191 49 53 4.71785
r192 46 80 1.1
r193 46 47 0.200208
r194 42 74 1.1
r195 42 43 0.200208
r196 38 68 1.1
r197 38 39 0.200208
r198 34 62 1.1
r199 34 35 0.200208
r200 8 47 1
r201 7 43 1
r202 6 39 1
r203 5 35 1
r204 4 8 7.75
r205 3 7 7.75
r206 2 6 7.75
r207 1 5 7.75
.ends

.subckt PM_Lab3_CAS_Cin 1 2 3 4 5 6 26 30 33 36 44 47 53 59 65 71 77
c124 65 0 1.8605e-19
c125 44 0 2.60291e-19
c126 33 0 2.74057e-20
c127 26 0 5.48113e-20
r128 77 80 1.03846
r129 71 74 1.03846
r130 65 68 1.03846
r131 62 77 2
r132 59 62 0.526154
r133 56 71 2
r134 53 56 0.526154
r135 50 65 2
r136 47 50 0.526154
r137 44 80 2
r138 42 74 2
r139 42 44 7.106
r140 40 68 2
r141 40 42 19.2865
r142 36 40 7.07969
r143 33 59 1.1
r144 33 34 0.200208
r145 30 53 1.1
r146 26 47 1.1
r147 26 27 0.200208
r148 17 30 0.200208
r149 6 34 1
r150 5 17 1
r151 4 27 1
r152 3 6 7.75
r153 2 5 7.75
r154 1 4 7.75
.ends

.subckt PM_Lab3_CAS_N_15 1 3 5 6 8 10 11 15 22 23 27 32
c35 27 0 2.58238e-20
c36 22 0 5.16476e-20
c37 11 0 1.43764e-19
c38 8 0 3.86852e-19
c39 3 0 3.86852e-19
r40 28 32 0.184778
r41 27 29 0.214287
r42 27 28 5.15
r43 24 32 0.0230929
r44 22 32 0.184778
r45 22 23 6.15
r46 19 23 0.214287
r47 15 29 1.83244
r48 13 15 0.5
r49 11 13 0.0623333
r50 10 24 1.83244
r51 8 10 0.5
r52 6 8 0.0625
r53 5 19 1.83244
r54 3 5 0.5
r55 1 3 0.0625
.ends

.subckt PM_Lab3_CAS_N_7 2 4 8 10 14 22 24 25 26 28 30 32
c56 30 0 1.8605e-19
c57 26 0 2.74057e-20
c58 14 0 1.43764e-19
c59 10 0 3.86852e-19
c60 4 0 3.86852e-19
r61 29 32 0.197273
r62 28 30 0.21666
r63 28 29 5.59143
r64 26 32 0.0141807
r65 24 32 0.197273
r66 24 25 6.67714
r67 22 25 0.21666
r68 18 30 0.485556
r69 16 18 0.5
r70 14 16 0.0623333
r71 12 26 0.485556
r72 10 12 0.5
r73 8 10 0.0625
r74 6 22 0.485556
r75 4 6 0.5
r76 2 4 0.0625
.ends

.subckt PM_Lab3_CAS_N_10 1 3 5 6 8 10 11 12 14 16 18 20 22 24 25 26 50 55 63 67
+ 69 81 87 89 90 91 92 98 102 104
c138 102 0 8.27662e-20
c139 55 0 3.24099e-20
c140 50 0 3.28316e-20
c141 24 0 1.82486e-19
c142 22 0 1.43764e-19
c143 18 0 5.48113e-20
c144 16 0 1.43764e-19
c145 8 0 1.43764e-19
c146 3 0 1.43764e-19
r147 100 104 0.105861
r148 100 102 13.0865
r149 96 104 0.0275115
r150 96 98 0.457692
r151 92 104 0.105861
r152 92 94 13.4827
r153 84 102 2
r154 84 87 0.704462
r155 78 98 2
r156 78 81 0.704462
r157 74 91 0.13948
r158 71 91 0.13948
r159 70 90 0.245011
r160 69 91 0.0609838
r161 69 70 1.835
r162 67 94 2
r163 65 90 0.0155046
r164 65 67 0.394615
r165 64 89 0.0609838
r166 63 90 0.245011
r167 63 64 1.615
r168 60 89 0.13948
r169 57 89 0.13948
r170 53 87 1.1
r171 53 55 0.159091
r172 48 81 1.1
r173 48 50 0.159091
r174 44 55 0.110077
r175 41 55 0.110077
r176 38 50 0.110077
r177 35 50 0.110077
r178 26 44 4.265
r179 25 38 2.75
r180 24 74 4.82178
r181 22 24 0.5
r182 20 22 0.0625
r183 18 60 4.01956
r184 16 18 0.5
r185 14 16 0.0625
r186 12 41 2.935
r187 11 35 4.45
r188 10 71 1.40178
r189 8 10 0.5
r190 6 8 0.0625
r191 5 57 2.204
r192 3 5 0.5
r193 1 3 0.0625
.ends

.subckt PM_Lab3_CAS_N_14 1 6 8 10 13 15 16
c33 8 0 3.86852e-19
c34 1 0 1.43764e-19
r35 15 17 0.214287
r36 15 16 7.2
r37 13 16 0.214287
r38 10 17 1.48622
r39 8 10 0.5
r40 6 8 0.0625
r41 5 13 0.684
r42 3 5 0.5
r43 1 3 0.0623333
.ends

.subckt PM_Lab3_CAS_N_6 2 6 8 10 18 19 20
c43 20 0 5.48113e-20
c44 10 0 3.86852e-19
c45 6 0 8.2217e-20
c46 2 0 1.43764e-19
r47 18 20 0.21666
r48 18 19 7.81714
r49 15 19 0.21666
r50 12 20 0.485556
r51 10 12 0.5
r52 8 10 0.0625
r53 6 15 1.28778
r54 4 6 0.5
r55 2 4 0.0623333
.ends

.subckt PM_Lab3_CAS_N_13 1 3 5 6 8 10 11 13 15 16 20 28 29 33 38 43 44
c64 16 0 1.43764e-19
c65 13 0 3.86852e-19
c66 8 0 3.86852e-19
c67 3 0 3.86852e-19
r68 39 44 0.197273
r69 38 40 0.21666
r70 38 39 5.59143
r71 35 44 0.0141807
r72 34 43 0.197273
r73 33 44 0.197273
r74 33 34 6.67714
r75 30 43 0.0141807
r76 28 43 0.197273
r77 28 29 6.67714
r78 25 29 0.21666
r79 20 40 1.28778
r80 18 20 0.5
r81 16 18 0.0623333
r82 15 35 1.28778
r83 13 15 0.5
r84 11 13 0.0625
r85 10 30 1.28778
r86 8 10 0.5
r87 6 8 0.0625
r88 5 25 1.28778
r89 3 5 0.5
r90 1 3 0.0625
.ends

.subckt PM_Lab3_CAS_N_1 2 4 8 10 14 16 20 29 31 32 33 35 37 39 41 43 44
c83 33 0 8.2217e-20
c84 20 0 1.43764e-19
c85 16 0 3.86852e-19
c86 10 0 3.86852e-19
c87 4 0 3.86852e-19
r88 40 44 0.197273
r89 39 41 0.21666
r90 39 40 5.59143
r91 37 44 0.0141807
r92 36 43 0.197273
r93 35 44 0.197273
r94 35 36 6.67714
r95 33 43 0.0141807
r96 31 43 0.197273
r97 31 32 6.67714
r98 29 32 0.21666
r99 24 41 0.485556
r100 22 24 0.5
r101 20 22 0.0623333
r102 18 37 0.485556
r103 16 18 0.5
r104 14 16 0.0625
r105 12 33 0.485556
r106 10 12 0.5
r107 8 10 0.0625
r108 6 29 0.485556
r109 4 6 0.5
r110 2 4 0.0625
.ends

.subckt PM_Lab3_CAS_N_9 1 3 5 6 8 11 13 15 19 21 23 24 40 46 48 49 51 53 55 64
+ 66 70 72 77
c97 70 0 3.28316e-20
c98 40 0 1.14722e-19
c99 21 0 1.43764e-19
c100 15 0 1.43764e-19
c101 8 0 1.43764e-19
c102 3 0 1.43764e-19
r103 74 77 9.08269
r104 70 74 2
r105 67 70 0.321538
r106 61 77 2
r107 61 64 0.952923
r108 54 72 0.0704343
r109 53 57 0.21666
r110 53 54 4.45143
r111 52 66 0.0704343
r112 51 55 0.21666
r113 51 52 4.45143
r114 49 72 0.12992
r115 48 72 0.12992
r116 47 67 0.0900367
r117 47 48 1.11467
r118 46 67 0.0900367
r119 45 66 0.12992
r120 45 46 2.51644
r121 42 66 0.12992
r122 38 64 1.1
r123 38 40 0.161364
r124 34 40 0.110077
r125 31 40 0.110077
r126 24 34 2.755
r127 23 57 1.28778
r128 21 23 0.5
r129 19 21 0.0625
r130 17 49 0.485556
r131 15 17 0.5
r132 13 15 0.0625
r133 11 31 4.445
r134 10 55 0.485556
r135 8 10 0.5
r136 6 8 0.0625
r137 5 42 1.28778
r138 3 5 0.5
r139 1 3 0.0625
.ends

.subckt PM_Lab3_CAS_N_5 1 6 8 13 15 16 17
c29 8 0 1.43764e-19
c30 1 0 1.43764e-19
r31 15 17 0.21666
r32 15 16 5.59143
r33 13 16 0.21666
r34 10 17 0.485556
r35 8 10 0.5
r36 6 8 0.0625
r37 5 13 0.485556
r38 3 5 0.5
r39 1 3 0.0623333
.ends

.subckt PM_Lab3_CAS_N_2 2 6 8 10 12 18 19
c37 10 0 1.43764e-19
c38 6 0 2.74057e-20
c39 2 0 1.43764e-19
r40 18 20 0.21666
r41 18 19 5.59143
r42 15 19 0.21666
r43 12 20 1.28778
r44 10 12 0.5
r45 8 10 0.0625
r46 6 15 1.28778
r47 4 6 0.5
r48 2 4 0.0623333
.ends

.subckt PM_Lab3_CAS_N_4 1 6 8 13 15 16 17
c28 8 0 1.43203e-19
c29 1 0 1.43764e-19
r30 15 17 0.21666
r31 15 16 5.59143
r32 13 16 0.21666
r33 10 17 0.485556
r34 8 10 0.5
r35 6 8 0.0625
r36 5 13 0.485556
r37 3 5 0.5
r38 1 3 0.0623333
.ends

.subckt PM_Lab3_CAS_N_3 2 6 8 10 12 18 19
c34 12 0 1.94971e-19
c35 10 0 3.86852e-19
c36 6 0 2.74057e-20
c37 2 0 1.43764e-19
r38 18 20 0.21666
r39 18 19 5.59143
r40 15 19 0.21666
r41 12 20 1.28778
r42 10 12 0.5
r43 8 10 0.0625
r44 6 15 1.28778
r45 4 6 0.5
r46 2 4 0.0623333
.ends

.subckt PM_Lab3_CAS_Sum 1 3 5 7 9 14
c16 9 0 3.86852e-19
c17 5 0 3.19561e-20
c18 3 0 3.86852e-19
r19 11 14 1.81556
r20 9 11 0.5
r21 7 9 0.0625
r22 5 14 4.72889
r23 3 5 0.5
r24 1 3 0.0625
.ends

.subckt PM_Lab3_CAS_Cout 1 3 5 7 9 14
c13 9 0 3.86852e-19
c14 5 0 3.24099e-20
c15 3 0 3.86852e-19
r16 11 14 3.36511
r17 9 11 0.5
r18 7 9 0.0625
r19 5 14 3.17933
r20 3 5 0.5
r21 1 3 0.0625
.ends

